testData/IEEE300/testCases/IEEE300Bus_modified_noHVDC_v2_zone1scalepercent_-5.raw
0,   100.00, 30, 0, 1,  60.00     / PSS(R)E 30 RAW created by rawd30  MON, NOV 23 2020  14:25
 00/00/01                      100.0  0    0
 0
     1,'1           ', 115.0000,1,     0.000,     0.000,   1,   1,1.03157,  -1.5082,   1
     2,'2           ', 115.0000,1,     0.000,     0.000,   1,   1,1.03560,   0.1752,   1
     3,'3           ', 230.0000,1,     0.000,     0.000,   1,   1,0.99770,  -1.8312,   1
     4,'4           ', 345.0000,1,     0.000,     0.000,   1,   1,1.03242,  -3.4238,   1
     5,'5           ', 115.0000,1,     0.000,     0.000,   1,   1,1.02328,  -2.6277,   1
     6,'6           ', 115.0000,1,     0.000,     0.000,   1,   1,1.03178,  -0.6520,   1
     7,'7           ', 230.0000,1,     0.000,     0.000,   1,   1,0.99374,  -2.2111,   1
     8,'8           ', 115.0000,1,     0.000,     0.000,   1,   1,1.01530,  -4.1116,   1
     9,'9           ', 115.0000,1,     0.000,     0.000,   1,   1,1.00802,  -3.8636,   1
    10,'10          ', 230.0000,1,     0.000,     0.000,   1,   1,1.02050,  -5.3517,   1
    11,'11          ', 115.0000,1,     0.000,     0.000,   1,   1,1.00754,  -3.9281,   1
    12,'12          ', 230.0000,1,     0.000,     0.000,   1,   1,0.99890,  -2.4118,   1
    13,'13          ', 115.0000,1,     0.000,     0.000,   1,   1,0.99976,  -6.4315,   1
    14,'14          ', 115.0000,1,     0.000,     0.000,   1,   1,1.00700, -10.0879,   1
    15,'15          ', 115.0000,1,     0.000,     0.000,   1,   1,1.03885, -13.2188,   1
    16,'16          ', 345.0000,1,     0.000,     0.000,   1,   1,1.03595,  -9.4900,   1
    17,'17          ', 115.0000,1,     0.000,     0.000,   1,   1,1.07649, -16.1232,   1
    19,'19          ', 230.0000,1,     0.000,     0.000,   1,   1,0.98645,  -5.3897,   1
    20,'20          ', 115.0000,1,     0.000,     0.000,   1,   1,1.00100,  -8.0268,   1
    21,'21          ', 230.0000,1,     0.000,     0.000,   1,   1,0.97823,  -4.8022,   1
    22,'22          ', 115.0000,1,     0.000,     0.000,   1,   1,0.99947,  -7.3757,   1
    23,'23          ', 115.0000,1,     0.000,     0.000,   1,   1,1.05167,  -1.6872,   1
    24,'24          ', 230.0000,1,     0.000,     0.000,   1,   1,1.00734,  -0.1065,   1
    25,'25          ', 115.0000,1,     0.000,     0.000,   1,   1,1.02950,  -3.8582,   1
    26,'26          ', 115.0000,1,     0.000,     0.000,   1,   1,1.00824,  -6.6595,   1
    27,'27          ', 115.0000,1,     0.000,     0.000,   1,   1,0.98658,  -9.5578,   1
    33,'33          ', 115.0000,1,     0.000,     0.000,   1,   1,1.02272, -16.5295,   1
    34,'34          ', 345.0000,1,     0.000,     0.000,   1,   1,1.04214, -14.3689,   1
    35,'35          ', 115.0000,1,     0.000,     0.000,   1,   1,0.97574, -34.5192,   1
    36,'36          ', 230.0000,1,     0.000,     0.000,   1,   1,1.00073, -32.2633,   1
    37,'37          ', 115.0000,1,     0.000,     0.000,   1,   1,1.01879, -14.8742,   1
    38,'38          ', 115.0000,1,     0.000,     0.000,   1,   1,1.01915, -16.9106,   1
    39,'39          ', 345.0000,1,     0.000,     0.000,   1,   1,1.05386, -12.5654,   1
    40,'40          ', 115.0000,1,     0.000,     0.000,   1,   1,1.02001, -16.8436,   1
    41,'41          ', 115.0000,1,     0.000,     0.000,   1,   1,1.02525, -15.0033,   1
    42,'42          ', 345.0000,1,     0.000,     0.000,   1,   1,1.04515, -14.1168,   1
    43,'43          ', 115.0000,1,     0.000,     0.000,   1,   1,1.00261, -22.1252,   1
    44,'44          ', 115.0000,1,     0.000,     0.000,   1,   1,1.00941, -24.3853,   1
    45,'45          ', 230.0000,1,     0.000,     0.000,   1,   1,1.02341, -22.6804,   1
    46,'46          ', 345.0000,1,     0.000,     0.000,   1,   1,1.03151, -19.6121,   1
    47,'47          ', 115.0000,1,     0.000,     0.000,   1,   1,0.98230, -29.9213,   1
    48,'48          ', 115.0000,1,     0.000,     0.000,   1,   1,1.00485, -19.4956,   1
    49,'49          ', 115.0000,1,     0.000,     0.000,   1,   1,1.04826,  -3.3763,   1
    51,'51          ', 115.0000,1,     0.000,     0.000,   1,   1,1.02320, -11.1631,   1
    52,'52          ', 115.0000,1,     0.000,     0.000,   1,   1,1.00287, -16.0037,   1
    53,'53          ', 115.0000,1,     0.000,     0.000,   1,   1,0.99945, -22.9471,   1
    54,'54          ', 115.0000,1,     0.000,     0.000,   1,   1,1.00784, -22.1049,   1
    55,'55          ', 115.0000,1,     0.000,     0.000,   1,   1,1.01982, -17.5850,   1
    57,'57          ', 115.0000,1,     0.000,     0.000,   1,   1,1.03931, -15.3080,   1
    58,'58          ', 115.0000,1,     0.000,     0.000,   1,   1,0.99978, -14.4708,   1
    59,'59          ', 115.0000,1,     0.000,     0.000,   1,   1,0.98812, -14.1595,   1
    60,'60          ', 230.0000,1,     0.000,     0.000,   1,   1,1.03024, -19.0315,   1
    61,'61          ', 115.0000,1,     0.000,     0.000,   1,   1,0.99754, -12.8065,   1
    62,'62          ', 230.0000,1,     0.000,     0.000,   1,   1,1.01996, -13.0188,   1
    63,'63          ', 115.0000,1,     0.000,     0.000,   1,   1,0.95830, -27.6765,   1
    64,'64          ', 230.0000,1,     0.000,     0.000,   1,   1,0.95160, -23.5103,   1
    69,'69          ', 115.0000,1,     0.000,     0.000,   1,   1,0.96638, -36.1477,   1
    70,'70          ', 115.0000,1,     0.000,     0.000,   1,   1,0.95772, -42.9983,   1
    71,'71          ', 115.0000,1,     0.000,     0.000,   1,   1,0.98546, -37.7852,   1
    72,'72          ', 115.0000,1,     0.000,     0.000,   1,   1,0.97341, -35.9368,   1
    73,'73          ', 115.0000,1,     0.000,     0.000,   1,   1,0.98107, -34.1795,   1
    74,'74          ', 230.0000,1,     0.000,     0.000,   1,   1,0.99772, -31.0083,   1
    76,'76          ', 115.0000,1,     0.000,     0.000,   1,   1,0.96320, -35.0582,   1
    77,'77          ', 115.0000,1,     0.000,     0.000,   1,   1,0.98536, -33.8870,   1
    78,'78          ', 115.0000,1,     0.000,     0.000,   1,   1,0.99160, -33.0499,   1
    79,'79          ', 115.0000,1,     0.000,     0.000,   1,   1,0.98469, -34.0165,   1
    80,'80          ', 115.0000,1,     0.000,     0.000,   1,   1,0.98906, -35.2430,   1
    81,'81          ', 345.0000,1,     0.000,     0.000,   1,   1,1.02931, -30.1781,   1
    84,'84          ', 115.0000,1,     0.000,     0.000,   1,   1,1.02499, -26.4148,   1
    85,'85          ', 230.0000,1,     0.000,     0.000,   1,   1,0.99110, -20.0465,   1
    86,'86          ', 230.0000,1,     0.000,     0.000,   1,   1,0.99786, -17.0212,   1
    87,'87          ', 230.0000,1,     0.000,     0.000,   1,   1,1.00087, -12.0620,   1
    88,'88          ', 230.0000,1,     0.000,     0.000,   1,   1,1.01260, -31.0978,   1
    89,'89          ', 115.0000,1,     0.000,     0.000,   1,   1,1.03443, -14.4568,   1
    90,'90          ', 115.0000,1,     0.000,     0.000,   1,   1,1.02965, -14.4606,   1
    91,'91          ', 115.0000,1,     0.000,     0.000,   1,   1,1.05200, -12.4488,   1
    92,'92          ', 115.0000,1,     0.000,     0.000,   1,   1,1.05200,  -9.2882,   1
    94,'94          ', 115.0000,1,     0.000,     0.000,   1,   1,0.99889, -13.2204,   1
    97,'97          ', 115.0000,1,     0.000,     0.000,   1,   1,1.02096, -15.8115,   1
    98,'98          ', 115.0000,1,     0.000,     0.000,   1,   1,1.00000, -16.7154,   1
    99,'99          ', 115.0000,1,     0.000,     0.000,   1,   1,0.98973, -22.3272,   1
   100,'100         ', 115.0000,1,     0.000,     0.000,   1,   1,1.00831, -16.8182,   1
   102,'102         ', 115.0000,1,     0.000,     0.000,   1,   1,1.00399, -17.6159,   1
   103,'103         ', 115.0000,1,     0.000,     0.000,   1,   1,1.03105, -14.7421,   1
   104,'104         ', 115.0000,1,     0.000,     0.000,   1,   1,0.99841, -19.5154,   1
   105,'105         ', 115.0000,1,     0.000,     0.000,   1,   1,1.02461, -15.6765,   1
   107,'107         ', 115.0000,1,     0.000,     0.000,   1,   1,1.01214, -18.9091,   1
   108,'108         ', 115.0000,1,     0.000,     0.000,   1,   1,0.99000, -22.2555,   1
   109,'109         ', 115.0000,1,     0.000,     0.000,   1,   1,0.97875, -29.6270,   1
   110,'110         ', 115.0000,1,     0.000,     0.000,   1,   1,0.97697, -27.4053,   1
   112,'112         ', 115.0000,1,     0.000,     0.000,   1,   1,0.97491, -33.6511,   1
   113,'113         ', 115.0000,1,     0.000,     0.000,   1,   1,0.97438, -31.2053,   1
   114,'114         ', 115.0000,1,     0.000,     0.000,   1,   1,0.97648, -33.8737,   1
   115,'115         ', 115.0000,1,     0.000,     0.000,   2,   2,0.95960, -12.0917,   1
   116,'116         ', 115.0000,1,     0.000,     0.000,   2,   2,1.03769,  -6.0682,   1
   117,'117         ', 115.0000,1,     0.000,   325.000,   2,   2,0.94986,  -0.3678,   1
   118,'118         ', 115.0000,1,     0.000,     0.000,   2,   2,0.94324,   0.5638,   1
   119,'119         ', 115.0000,1,     0.000,     0.000,   2,   2,1.04340,  13.2305,   1
   120,'120         ', 115.0000,1,     0.000,    55.000,   2,   2,1.02946,   8.9198,   1
   121,'121         ', 115.0000,1,     0.000,     0.000,   2,   2,0.88255,  -9.7878,   1
   122,'122         ', 115.0000,1,     0.000,     0.000,   2,   2,0.94047, -13.6400,   1
   123,'123         ', 115.0000,1,     0.000,     0.000,   2,   2,0.98641, -17.5846,   1
   124,'124         ', 115.0000,1,     0.000,     0.000,   2,   2,1.02329,  -8.6932,   1
   125,'125         ', 115.0000,1,     0.000,     0.000,   2,   2,1.01027, -24.8962,   1
   126,'126         ', 115.0000,1,     0.000,     0.000,   2,   2,0.98831, -20.3232,   1
   127,'127         ', 230.0000,1,     0.000,     0.000,   2,   2,0.99573, -24.1574,   1
   128,'128         ', 230.0000,1,     0.000,     0.000,   2,   2,0.99628, -20.9120,   1
   129,'129         ', 230.0000,1,     0.000,     0.000,   2,   2,0.99585, -20.1087,   1
   130,'130         ', 230.0000,1,     0.000,     0.000,   2,   2,1.01432,  -5.7595,   1
   131,'131         ', 230.0000,1,     0.000,     0.000,   2,   2,0.98330,  -3.1359,   1
   132,'132         ', 230.0000,1,     0.000,     0.000,   2,   2,1.00156,  -8.0393,   1
   133,'133         ', 230.0000,1,     0.000,     0.000,   2,   2,0.99842, -23.6301,   1
   134,'134         ', 230.0000,1,     0.000,     0.000,   2,   2,1.02246, -23.7238,   1
   135,'135         ', 230.0000,1,     0.000,     0.000,   2,   2,1.02301, -24.0303,   1
   136,'136         ', 230.0000,1,     0.000,     0.000,   2,   2,1.05049, -19.0970,   1
   137,'137         ', 230.0000,1,     0.000,     0.000,   2,   2,1.04454, -24.6973,   1
   138,'138         ', 230.0000,1,     0.000,     0.000,   2,   2,1.05496, -34.1846,   1
   139,'139         ', 115.0000,1,     0.000,     0.000,   2,   2,1.01088, -27.0291,   1
   140,'140         ', 230.0000,1,     0.000,     0.000,   2,   2,1.04078, -26.5172,   1
   141,'141         ', 230.0000,1,     0.000,     0.000,   2,   2,1.05099, -23.0540,   1
   142,'142         ', 230.0000,1,     0.000,     0.000,   2,   2,1.01218, -23.5279,   1
   143,'143         ', 230.0000,1,     0.000,     0.000,   2,   2,1.04349, -15.2932,   1
   144,'144         ', 230.0000,1,     0.000,     0.000,   2,   2,1.01863, -13.1866,   1
   145,'145         ', 230.0000,1,     0.000,     0.000,   2,   2,1.00760, -20.9911,   1
   146,'146         ', 230.0000,1,     0.000,     0.000,   2,   2,1.05280, -17.6383,   1
   147,'147         ', 230.0000,1,     0.000,     0.000,   2,   2,1.05280, -13.9777,   1
   148,'148         ', 230.0000,1,     0.000,     0.000,   2,   2,1.05787, -19.3541,   1
   149,'149         ', 230.0000,1,     0.000,     0.000,   2,   2,1.07350, -14.8025,   1
   150,'150         ', 230.0000,1,     0.000,     0.000,   2,   2,0.98379,  -3.0528,   1
   151,'151         ', 230.0000,1,     0.000,     0.000,   2,   2,1.00133,  -7.2064,   1
   152,'152         ', 230.0000,1,     0.000,     0.000,   2,   2,1.05351, -12.2925,   1
   153,'153         ', 230.0000,1,     0.000,     0.000,   2,   2,1.04350, -12.3987,   1
   154,'154         ', 115.0000,1,     0.000,    34.500,   2,   2,0.96710, -24.9818,   1
   155,'155         ', 230.0000,1,     0.000,     0.000,   2,   2,1.01866, -16.7869,   1
   156,'156         ', 115.0000,1,     0.000,     0.000,   2,   2,0.96300, -18.3667,   1
   157,'157         ', 230.0000,1,     0.000,     0.000,   2,   2,0.95594, -11.7152,   1
   158,'158         ', 230.0000,1,     0.000,     0.000,   2,   2,0.97176, -11.7883,   1
   159,'159         ', 230.0000,1,     0.000,     0.000,   2,   2,0.94603,  -8.1697,   1
   160,'160         ', 230.0000,1,     0.000,     0.000,   2,   2,0.98992, -10.1350,   1
   161,'161         ', 230.0000,1,     0.000,     0.000,   2,   2,1.03621, -14.2405,   1
   162,'162         ', 230.0000,1,     0.000,     0.000,   2,   2,0.99543,  -5.7990,   1
   163,'163         ', 230.0000,1,     0.000,     0.000,   2,   2,1.04024, -20.5228,   1
   164,'164         ', 230.0000,1,     0.000,  -212.000,   2,   2,0.98587, -14.0815,   1
   165,'165         ', 230.0000,1,     0.000,     0.000,   2,   2,1.00294,   1.5863,   1
   166,'166         ', 230.0000,1,     0.000,  -103.000,   2,   2,0.99901,   5.2931,   1
   167,'167         ', 230.0000,1,     0.000,     0.000,   2,   2,0.96176, -22.0725,   1
   168,'168         ', 230.0000,1,     0.000,     0.000,   2,   2,0.99636, -20.9455,   1
   169,'169         ', 230.0000,1,     0.000,     0.000,   2,   2,0.98107, -22.6628,   1
   170,'170         ', 115.0000,1,     0.000,     0.000,   2,   2,0.92899, -11.2678,   1
   171,'171         ', 115.0000,1,     0.000,     0.000,   2,   2,0.98288, -28.1252,   1
   172,'172         ', 115.0000,1,     0.000,     0.000,   2,   2,1.02469, -29.2550,   1
   173,'173         ', 115.0000,1,     0.000,    53.000,   2,   2,0.98294, -34.9454,   1
   174,'174         ', 115.0000,1,     0.000,     0.000,   2,   2,1.06221, -25.6775,   1
   175,'175         ', 115.0000,1,     0.000,     0.000,   2,   2,0.97233, -28.2148,   1
   176,'176         ', 115.0000,1,     0.000,     0.000,   2,   2,1.05220, -17.1735,   1
   177,'177         ', 115.0000,1,     0.000,     0.000,   2,   2,1.00770, -20.8220,   1
   178,'178         ', 115.0000,1,     0.000,     0.000,   2,   2,0.93909, -27.3567,   1
   179,'179         ', 115.0000,1,     0.000,    45.000,   2,   2,0.96837, -29.9497,   1
   180,'180         ', 115.0000,1,     0.000,     0.000,   2,   2,0.97873, -23.9120,   1
   181,'181         ', 230.0000,1,     0.000,     0.000,   2,   2,1.04825, -25.2767,   1
   182,'182         ', 230.0000,1,     0.000,     0.000,   2,   2,1.04271, -27.4220,   1
   183,'183         ', 115.0000,1,     0.000,     0.000,   2,   2,0.97176, -15.7912,   1
   184,'184         ', 230.0000,1,     0.000,     0.000,   2,   2,1.03883, -22.7246,   1
   185,'185         ', 230.0000,1,     0.000,     0.000,   2,   2,1.05220, -20.3346,   1
   186,'186         ', 230.0000,1,     0.000,     0.000,   2,   2,1.06497, -21.6729,   1
   187,'187         ', 230.0000,1,     0.000,     0.000,   2,   2,1.06497, -22.6718,   1
   188,'188         ', 230.0000,1,     0.000,     0.000,   2,   2,1.05041, -24.6502,   1
   189,'189         ',  66.0000,1,     0.000,     0.000,   3,   3,0.99461, -37.7279,   1
   190,'190         ', 345.0000,1,     0.000,  -150.000,   3,   3,1.05510, -36.5322,   1
   191,'191         ', 230.0000,1,     0.000,     0.000,   3,   3,1.04344, -10.6750,   1
   192,'192         ', 230.0000,1,     0.000,     0.000,   3,   3,0.94892, -32.3816,   1
   193,'192         ',  66.0000,1,     0.000,     0.000,   3,   3,0.98635, -37.4061,   1
   194,'194         ', 345.0000,1,     0.000,     0.000,   3,   3,1.04452, -32.8268,   1
   195,'195         ', 345.0000,1,     0.000,     0.000,   3,   3,1.03262, -34.2290,   1
   196,'196         ', 115.0000,1,     0.000,     0.000,   3,   3,0.97099, -37.6191,   1
   197,'197         ', 115.0000,1,     0.000,     0.000,   3,   3,0.99106, -36.2269,   1
   198,'198         ', 115.0000,1,     0.000,     0.000,   3,   3,1.01499, -33.3237,   1
   199,'199         ', 115.0000,1,     0.000,     0.000,   3,   3,0.95229, -38.8602,   1
   200,'200         ', 115.0000,1,     0.000,     0.000,   3,   3,0.95284, -39.0227,   1
   201,'201         ',  66.0000,1,     0.000,     0.000,   1,   1,0.97594, -37.9016,   1
   202,'202         ',  66.0000,1,     0.000,     0.000,   3,   3,0.99081, -37.9070,   1
   203,'203         ', 115.0000,1,     0.000,     0.000,   3,   3,1.00326, -35.0082,   1
   204,'204         ',  66.0000,1,     0.000,     0.000,   3,   3,0.97128, -36.8430,   1
   205,'205         ',  66.0000,1,     0.000,     0.000,   3,   3,0.98227, -37.0953,   1
   206,'206         ',  66.0000,1,     0.000,     0.000,   3,   3,1.00282, -35.7358,   1
   207,'207         ',  66.0000,1,     0.000,     0.000,   1,   1,1.02305, -34.5280,   1
   208,'208         ',  66.0000,1,     0.000,     0.000,   3,   3,0.98943, -37.5620,   1
   209,'209         ',  66.0000,1,     0.000,     0.000,   3,   3,0.99653, -37.7912,   1
   210,'210         ', 115.0000,1,     0.000,     0.000,   3,   3,0.97913, -36.8378,   1
   211,'211         ', 115.0000,1,     0.000,     0.000,   3,   3,1.00137, -35.8650,   1
   212,'212         ', 138.0000,1,     0.000,     0.000,   3,   3,1.01174, -35.4945,   1
   213,'213         ',  16.5000,1,     0.000,     0.000,   3,   3,1.01000, -26.9306,   1
   214,'214         ', 138.0000,1,     0.000,     0.000,   3,   3,0.99171, -32.5030,   1
   215,'215         ', 138.0000,1,     0.000,     0.000,   3,   3,0.98577, -35.0191,   1
   216,'216         ', 138.0000,1,     0.000,     0.000,   3,   3,0.97368, -37.6562,   1
   217,'217         ', 138.0000,1,     0.000,     0.000,   3,   3,1.02058, -37.9635,   1
   218,'218         ', 138.0000,1,     0.000,     0.000,   3,   3,1.00682, -38.5369,   1
...
 0 /End of Bus data, Begin Load data
     1,'1 ',1,   1,   1,    74.548,    40.587,     0.000,     0.000,     0.000,     0.000,   1
     2,'1 ',1,   1,   1,    46.386,    12.425,     0.000,     0.000,     0.000,     0.000,   1
     3,'1 ',1,   1,   1,    16.566,     0.000,     0.000,     0.000,     0.000,     0.000,   1
     5,'1 ',1,   1,   1,   292.395,   107.681,     0.000,     0.000,     0.000,     0.000,   1
     6,'1 ',1,   1,   1,    99.398,    33.961,     0.000,     0.000,     0.000,     0.000,   1
     8,'1 ',1,   1,   1,    48.042,    11.596,     0.000,     0.000,     0.000,     0.000,   1
     9,'1 ',1,   1,   1,    79.518,    35.617,     0.000,     0.000,     0.000,     0.000,   1
    10,'1 ',1,   1,   1,   122.590,    27.334,     0.000,     0.000,     0.000,     0.000,   1
    11,'1 ',1,   1,   1,    68.750,    17.395,     0.000,     0.000,     0.000,     0.000,   1
    13,'1 ',1,   1,   1,    48.042,     8.283,     0.000,     0.000,     0.000,     0.000,   1
    14,'1 ',1,   1,   1,   132.530,    49.699,     0.000,     0.000,     0.000,     0.000,   1
    15,'1 ',1,   1,   1,   104.947,    19.051,     0.000,     0.000,     0.000,     0.000,   1
    17,'1 ',1,   1,   1,   464.684,   182.229,     0.000,     0.000,     0.000,     0.000,   1
    20,'1 ',1,   1,   1,   492.846,    99.398,     0.000,     0.000,     0.000,     0.000,   1
    21,'1 ',1,   1,   1,    63.780,     0.828,     0.000,     0.000,     0.000,     0.000,   1
    22,'1 ',1,   1,   1,    67.093,    19.051,     0.000,     0.000,     0.000,     0.000,   1
    23,'1 ',1,   1,   1,    17.395,     5.798,     0.000,     0.000,     0.000,     0.000,   1
    25,'1 ',1,   1,   1,    37.274,     9.940,     0.000,     0.000,     0.000,     0.000,   1
    26,'1 ',1,   1,   1,    23.193,     7.455,     0.000,     0.000,     0.000,     0.000,   1
    27,'1 ',1,   1,   1,    57.154,    10.768,     0.000,     0.000,     0.000,     0.000,   1
    33,'1 ',1,   1,   1,    45.557,     4.970,     0.000,     0.000,     0.000,     0.000,   1
    37,'1 ',1,   1,   1,    70.407,    26.506,     0.000,     0.000,     0.000,     0.000,   1
    38,'1 ',1,   1,   1,   128.389,    14.910,     0.000,     0.000,     0.000,     0.000,   1
    40,'1 ',1,   1,   1,    38.102,   -17.395,     0.000,     0.000,     0.000,     0.000,   1
    41,'1 ',1,   1,   1,    71.235,     0.000,     0.000,     0.000,     0.000,     0.000,   1
    43,'1 ',1,   1,   1,    32.304,     7.455,     0.000,     0.000,     0.000,     0.000,   1
    44,'1 ',1,   1,   1,   161.521,    24.021,     0.000,     0.000,     0.000,     0.000,   1
    47,'1 ',1,   1,   1,    48.042,     9.774,     0.000,     0.000,     0.000,     0.000,   1
    48,'1 ',1,   1,   1,    33.961,    15.738,     0.000,     0.000,     0.000,     0.000,   1
    49,'1 ',1,   1,   1,    76.205,    21.536,     0.000,     0.000,     0.000,     0.000,   1
    51,'1 ',1,   1,   1,    -4.142,     4.142,     0.000,     0.000,     0.000,     0.000,   1
    52,'1 ',1,   1,   1,    50.527,    23.193,     0.000,     0.000,     0.000,     0.000,   1
    53,'1 ',1,   1,   1,    57.154,     2.485,     0.000,     0.000,     0.000,     0.000,   1
    54,'1 ',1,   1,   1,     8.283,     0.828,     0.000,     0.000,     0.000,     0.000,   1
    55,'1 ',1,   1,   1,    18.223,     8.283,     0.000,     0.000,     0.000,     0.000,   1
    57,'1 ',1,   1,   1,    81.175,    16.566,     0.000,     0.000,     0.000,     0.000,   1
    58,'1 ',1,   1,   1,    11.596,     0.828,     0.000,     0.000,     0.000,     0.000,   1
    59,'1 ',1,   1,   1,   180.572,    87.801,     0.000,     0.000,     0.000,     0.000,   1
    61,'1 ',1,   1,   1,   188.027,    91.114,     0.000,     0.000,     0.000,     0.000,   1
    63,'1 ',1,   1,   1,    57.982,    24.849,     0.000,     0.000,     0.000,     0.000,   1
    70,'1 ',1,   1,   1,    56.000,    20.000,     0.000,     0.000,     0.000,     0.000,   1
    71,'1 ',1,   1,   1,    96.084,    31.476,     0.000,     0.000,     0.000,     0.000,   1
    72,'1 ',1,   1,   1,    47.214,    15.738,     0.000,     0.000,     0.000,     0.000,   1
    73,'1 ',1,   1,   1,   185.542,    58.810,     0.000,     0.000,     0.000,     0.000,   1
    76,'1 ',1,   1,   1,   172.289,    88.630,     0.000,     0.000,     0.000,     0.000,   1
    77,'1 ',1,   1,   1,    61.295,    23.193,     0.000,     0.000,     0.000,     0.000,   1
    79,'1 ',1,   1,   1,    39.759,    11.596,     0.000,     0.000,     0.000,     0.000,   1
    80,'1 ',1,   1,   1,    23.193,     5.798,     0.000,     0.000,     0.000,     0.000,   1
    84,'1 ',1,   1,   1,    30.648,    10.768,     0.000,     0.000,     0.000,     0.000,   1
    89,'1 ',1,   1,   1,    36.611,     0.000,     0.000,     0.000,     0.000,     0.000,   1
    90,'1 ',1,   1,   1,    54.669,     0.000,     0.000,     0.000,     0.000,     0.000,   1
    91,'1 ',1,   1,   1,    14.413,     0.000,     0.000,     0.000,     0.000,     0.000,   1
    92,'1 ',1,   1,   1,    13.087,     0.000,     0.000,     0.000,     0.000,     0.000,   1
    94,'1 ',1,   1,   1,    49.947,     0.000,     0.000,     0.000,     0.000,     0.000,   1
    97,'1 ',1,   1,   1,    33.050,     0.000,     0.000,     0.000,     0.000,     0.000,   1
    98,'1 ',1,   1,   1,    55.248,     0.000,     0.000,     0.000,     0.000,     0.000,   1
    99,'1 ',1,   1,   1,    69.164,     0.000,     0.000,     0.000,     0.000,     0.000,   1
   102,'1 ',1,   1,   1,    64.443,     0.000,     0.000,     0.000,     0.000,     0.000,   1
   103,'1 ',1,   1,   1,    26.506,     0.000,     0.000,     0.000,     0.000,     0.000,   1
   104,'1 ',1,   1,   1,     7.123,     0.000,     0.000,     0.000,     0.000,     0.000,   1
   105,'1 ',1,   1,   1,    41.084,     0.000,     0.000,     0.000,     0.000,     0.000,   1
   107,'1 ',1,   1,   1,     3.810,     0.000,     0.000,     0.000,     0.000,     0.000,   1
   108,'1 ',1,   1,   1,    92.854,     0.000,     0.000,     0.000,     0.000,     0.000,   1
   109,'1 ',1,   1,   1,    25.429,     0.000,     0.000,     0.000,     0.000,     0.000,   1
   110,'1 ',1,   1,   1,    52.184,     0.000,     0.000,     0.000,     0.000,     0.000,   1
   112,'1 ',1,   1,   1,    16.235,     0.000,     0.000,     0.000,     0.000,     0.000,   1
   113,'1 ',1,   1,   1,    27.000,     0.000,     0.000,     0.000,     0.000,     0.000,   1
   114,'1 ',1,   1,   1,    15.075,     0.000,     0.000,     0.000,     0.000,     0.000,   1
   118,'1 ',1,   2,   2,    14.100,   650.000,     0.000,     0.000,     0.000,     0.000,   1
   119,'1 ',1,   2,   2,   100.300,    34.400,     0.000,     0.000,     0.000,     0.000,   1
   121,'1 ',1,   2,   2,   535.000,    55.000,     0.000,     0.000,     0.000,     0.000,   1
   122,'1 ',1,   2,   2,   229.100,    11.800,     0.000,     0.000,     0.000,     0.000,   1
   123,'1 ',1,   2,   2,    78.000,     1.400,     0.000,     0.000,     0.000,     0.000,   1
   124,'1 ',1,   2,   2,   276.400,    59.300,     0.000,     0.000,     0.000,     0.000,   1
   125,'1 ',1,   2,   2,   514.800,    82.700,     0.000,     0.000,     0.000,     0.000,   1
   126,'1 ',1,   2,   2,    57.900,     5.100,     0.000,     0.000,     0.000,     0.000,   1
   127,'1 ',1,   2,   2,   380.800,    37.000,     0.000,     0.000,     0.000,     0.000,   1
   135,'1 ',1,   2,   2,   169.200,    41.600,     0.000,     0.000,     0.000,     0.000,   1
   136,'1 ',1,   2,   2,    55.200,    18.200,     0.000,     0.000,     0.000,     0.000,   1
   137,'1 ',1,   2,   2,   273.600,    99.800,     0.000,     0.000,     0.000,     0.000,   1
   138,'1 ',1,   2,   2,   826.700,   135.200,     0.000,     0.000,     0.000,     0.000,   1
   139,'1 ',1,   2,   2,   595.000,    83.300,     0.000,     0.000,     0.000,     0.000,   1
   140,'1 ',1,   2,   2,   387.700,   114.700,     0.000,     0.000,     0.000,     0.000,   1
   141,'1 ',1,   2,   2,   145.000,    58.000,     0.000,     0.000,     0.000,     0.000,   1
   142,'1 ',1,   2,   2,    56.500,    24.500,     0.000,     0.000,     0.000,     0.000,   1
   143,'1 ',1,   2,   2,    89.500,    35.500,     0.000,     0.000,     0.000,     0.000,   1
   145,'1 ',1,   2,   2,    24.000,    14.000,     0.000,     0.000,     0.000,     0.000,   1
   148,'1 ',1,   2,   2,    63.000,    25.000,     0.000,     0.000,     0.000,     0.000,   1
   152,'1 ',1,   2,   2,    17.000,     9.000,     0.000,     0.000,     0.000,     0.000,   1
   154,'1 ',1,   2,   2,    70.000,     5.000,     0.000,     0.000,     0.000,     0.000,   1
   155,'1 ',1,   2,   2,   200.000,    50.000,     0.000,     0.000,     0.000,     0.000,   1
   156,'1 ',1,   2,   2,    75.000,    50.000,     0.000,     0.000,     0.000,     0.000,   1
   157,'1 ',1,   2,   2,   123.500,    24.300,     0.000,     0.000,     0.000,     0.000,   1
   159,'1 ',1,   2,   2,    33.000,    16.500,     0.000,     0.000,     0.000,     0.000,   1
   161,'1 ',1,   2,   2,    35.000,    15.000,     0.000,     0.000,     0.000,     0.000,   1
   162,'1 ',1,   2,   2,    85.000,    24.000,     0.000,     0.000,     0.000,     0.000,   1
   163,'1 ',1,   2,   2,     0.000,     0.400,     0.000,     0.000,     0.000,     0.000,   1
   167,'1 ',1,   2,   2,   299.900,    95.700,     0.000,     0.000,     0.000,     0.000,   1
   170,'1 ',1,   2,   2,   481.800,   205.000,     0.000,     0.000,     0.000,     0.000,   1
   171,'1 ',1,   2,   2,   763.600,   291.100,     0.000,     0.000,     0.000,     0.000,   1
   172,'1 ',1,   2,   2,    26.500,     0.000,     0.000,     0.000,     0.000,     0.000,   1
   173,'1 ',1,   2,   2,   163.500,    43.000,     0.000,     0.000,     0.000,     0.000,   1
   175,'1 ',1,   2,   2,   176.000,    83.000,     0.000,     0.000,     0.000,     0.000,   1
   176,'1 ',1,   2,   2,     5.000,     4.000,     0.000,     0.000,     0.000,     0.000,   1
   177,'1 ',1,   2,   2,    28.000,    12.000,     0.000,     0.000,     0.000,     0.000,   1
   178,'1 ',1,   2,   2,   427.400,   173.600,     0.000,     0.000,     0.000,     0.000,   1
   179,'1 ',1,   2,   2,    74.000,    29.000,     0.000,     0.000,     0.000,     0.000,   1
   180,'1 ',1,   2,   2,    69.500,    49.300,     0.000,     0.000,     0.000,     0.000,   1
   181,'1 ',1,   2,   2,    73.400,     0.000,     0.000,     0.000,     0.000,     0.000,   1
   182,'1 ',1,   2,   2,   240.700,    89.000,     0.000,     0.000,     0.000,     0.000,   1
   183,'1 ',1,   2,   2,    40.000,     4.000,     0.000,     0.000,     0.000,     0.000,   1
   184,'1 ',1,   2,   2,   136.800,    16.600,     0.000,     0.000,     0.000,     0.000,   1
   186,'1 ',1,   2,   2,    59.800,    24.300,     0.000,     0.000,     0.000,     0.000,   1
   187,'1 ',1,   2,   2,    59.800,    24.300,     0.000,     0.000,     0.000,     0.000,   1
   188,'1 ',1,   2,   2,   182.600,    43.600,     0.000,     0.000,     0.000,     0.000,   1
   189,'1 ',1,   3,   3,     7.000,     2.000,     0.000,     0.000,     0.000,     0.000,   1
   191,'1 ',1,   3,   3,   489.000,    53.000,     0.000,     0.000,     0.000,     0.000,   1
   192,'1 ',1,   3,   3,   800.000,    72.000,     0.000,     0.000,     0.000,     0.000,   1
   196,'1 ',1,   3,   3,    10.000,     3.000,     0.000,     0.000,     0.000,     0.000,   1
   197,'1 ',1,   3,   3,    43.000,    14.000,     0.000,     0.000,     0.000,     0.000,   1
   198,'1 ',1,   3,   3,    64.000,    21.000,     0.000,     0.000,     0.000,     0.000,   1
   199,'1 ',1,   3,   3,    35.000,    12.000,     0.000,     0.000,     0.000,     0.000,   1
   200,'1 ',1,   3,   3,    27.000,    12.000,     0.000,     0.000,     0.000,     0.000,   1
   201,'1 ',1,   1,   1,    33.961,    11.596,     0.000,     0.000,     0.000,     0.000,   1
   202,'1 ',1,   3,   3,    38.000,    13.000,     0.000,     0.000,     0.000,     0.000,   1
   203,'1 ',1,   3,   3,    42.000,    14.000,     0.000,     0.000,     0.000,     0.000,   1
   204,'1 ',1,   3,   3,    72.000,    24.000,     0.000,     0.000,     0.000,     0.000,   1
   205,'1 ',1,   3,   3,     0.000,    -5.000,     0.000,     0.000,     0.000,     0.000,   1
   206,'1 ',1,   3,   3,    12.000,     2.000,     0.000,     0.000,     0.000,     0.000,   1
   207,'1 ',1,   1,   1,   -17.395,   -11.762,     0.000,     0.000,     0.000,     0.000,   1
   208,'1 ',1,   3,   3,     7.000,     2.000,     0.000,     0.000,     0.000,     0.000,   1
   209,'1 ',1,   3,   3,    38.000,    13.000,     0.000,     0.000,     0.000,     0.000,   1
   211,'1 ',1,   3,   3,    96.000,     7.000,     0.000,     0.000,     0.000,     0.000,   1
   214,'1 ',1,   3,   3,    22.000,    16.000,     0.000,     0.000,     0.000,     0.000,   1
   215,'1 ',1,   3,   3,    47.000,    26.000,     0.000,     0.000,     0.000,     0.000,   1
   216,'1 ',1,   3,   3,   176.000,   105.000,     0.000,     0.000,     0.000,     0.000,   1
   217,'1 ',1,   3,   3,   100.000,    75.000,     0.000,     0.000,     0.000,     0.000,   1
   218,'1 ',1,   3,   3,   131.000,    96.000,     0.000,     0.000,     0.000,     0.000,   1
   220,'1 ',1,   3,   3,   285.000,   100.000,     0.000,     0.000,     0.000,     0.000,   1
   221,'1 ',1,   3,   3,   171.000,    70.000,     0.000,     0.000,     0.000,     0.000,   1
   222,'1 ',1,   3,   3,   328.000,   188.000,     0.000,     0.000,     0.000,     0.000,   1
   223,'1 ',1,   3,   3,   428.000,   232.000,     0.000,     0.000,     0.000,     0.000,   1
   224,'1 ',1,   3,   3,   173.000,    99.000,     0.000,     0.000,     0.000,     0.000,   1
   225,'1 ',1,   3,   3,   410.000,    40.000,     0.000,     0.000,     0.000,     0.000,   1
   227,'1 ',1,   3,   3,   538.000,   369.000,     0.000,     0.000,     0.000,     0.000,   1
   228,'1 ',1,   3,   3,   223.000,   148.000,     0.000,     0.000,     0.000,     0.000,   1
   229,'1 ',1,   3,   3,    96.000,    46.000,     0.000,     0.000,     0.000,     0.000,   1
   231,'1 ',1,   3,   3,   159.000,   107.000,     0.000,     0.000,     0.000,     0.000,   1
   232,'1 ',1,   3,   3,   448.000,   143.000,     0.000,     0.000,     0.000,     0.000,   1
   233,'1 ',1,   3,   3,   404.000,   212.000,     0.000,     0.000,     0.000,     0.000,   1
   234,'1 ',1,   3,   3,   572.000,   244.000,     0.000,     0.000,     0.000,     0.000,   1
   235,'1 ',1,   3,   3,   269.000,   157.000,     0.000,     0.000,     0.000,     0.000,   1
   238,'1 ',1,   3,   3,   255.000,   149.000,     0.000,     0.000,     0.000,     0.000,   1
   243,'1 ',1,   3,   3,     8.000,     3.000,     0.000,     0.000,     0.000,     0.000,   1
   245,'1 ',1,   3,   3,    61.000,    30.000,     0.000,     0.000,     0.000,     0.000,   1
   246,'1 ',1,   3,   3,    77.000,    33.000,     0.000,     0.000,     0.000,     0.000,   1
   247,'1 ',1,   3,   3,    61.000,    30.000,     0.000,     0.000,     0.000,     0.000,   1
   248,'1 ',1,   3,   3,    29.000,    14.000,     0.000,     0.000,     0.000,     0.000,   1
   249,'1 ',1,   3,   3,    29.000,    14.000,     0.000,     0.000,     0.000,     0.000,   1
   250,'1 ',1,   3,   3,   -23.000,   -17.000,     0.000,     0.000,     0.000,     0.000,   1
   281,'1 ',1,   3,   3,   -33.100,   -29.400,     0.000,     0.000,     0.000,     0.000,   1
   319,'1 ',1,   1,   1,    95.919,   -19.880,     0.000,     0.000,     0.000,     0.000,   1
   320,'1 ',1,   1,   1,     1.988,   -10.437,     0.000,     0.000,     0.000,     0.000,   1
   322,'1 ',1,   1,   1,     1.988,    -3.230,     0.000,     0.000,     0.000,     0.000,   1
   323,'1 ',1,   1,   1,   -12.342,    21.950,     0.000,     0.000,     0.000,     0.000,   1
   324,'1 ',1,   1,   1,    20.459,    -0.994,     0.000,     0.000,     0.000,     0.000,   1
   526,'1 ',1,   1,   1,   146.000,   -40.000,     0.000,     0.000,     0.000,     0.000,   1
   528,'1 ',1,   1,   1,    28.100,   -20.500,     0.000,     0.000,     0.000,     0.000,   1
   531,'1 ',1,   1,   1,    11.596,     2.071,     0.000,     0.000,     0.000,     0.000,   1
   552,'1 ',1,   1,   1,    -9.194,    -1.160,     0.000,     0.000,     0.000,     0.000,   1
   562,'1 ',1,   1,   1,    50.500,    17.400,     0.000,     0.000,     0.000,     0.000,   1
   609,'1 ',1,   1,   1,    24.518,     0.497,     0.000,     0.000,     0.000,     0.000,   1
   664,'1 ',1,   3,   3,  -113.700,    76.700,     0.000,     0.000,     0.000,     0.000,   1
  1190,'1 ',1,   1,   1,    83.088,    24.162,     0.000,     0.000,     0.000,     0.000,   1
  1200,'1 ',1,   1,   1,   -82.831,    28.303,     0.000,     0.000,     0.000,     0.000,   1
  9003,'1 ',1,   1,   9,     2.710,     0.940,     0.000,     0.000,     0.000,     0.000,   1
  9004,'1 ',1,   1,   9,     0.860,     0.280,     0.000,     0.000,     0.000,     0.000,   1
  9021,'1 ',1,   1,   9,     4.750,     1.560,     0.000,     0.000,     0.000,     0.000,   1
  9022,'1 ',1,   1,   9,     1.530,     0.530,     0.000,     0.000,     0.000,     0.000,   1
  9024,'1 ',1,   1,   9,     1.350,     0.470,     0.000,     0.000,     0.000,     0.000,   1
  9025,'1 ',1,   1,   9,     0.450,     0.160,     0.000,     0.000,     0.000,     0.000,   1
  9026,'1 ',1,   1,   9,     0.450,     0.160,     0.000,     0.000,     0.000,     0.000,   1
  9031,'1 ',1,   1,   9,     1.840,     0.640,     0.000,     0.000,     0.000,     0.000,   1
  9032,'1 ',1,   1,   9,     1.390,     0.480,     0.000,     0.000,     0.000,     0.000,   1
  9033,'1 ',1,   1,   9,     1.890,     0.650,     0.000,     0.000,     0.000,     0.000,   1
  9034,'1 ',1,   1,   9,     1.550,     0.540,     0.000,     0.000,     0.000,     0.000,   1
  9035,'1 ',1,   1,   9,     1.660,     0.580,     0.000,     0.000,     0.000,     0.000,   1
  9036,'1 ',1,   1,   9,     3.030,     1.000,     0.000,     0.000,     0.000,     0.000,   1
  9037,'1 ',1,   1,   9,     1.860,     0.640,     0.000,     0.000,     0.000,     0.000,   1
  9038,'1 ',1,   1,   9,     2.580,     0.890,     0.000,     0.000,     0.000,     0.000,   1
  9041,'1 ',1,   1,   9,     1.010,     0.350,     0.000,     0.000,     0.000,     0.000,   1
  9042,'1 ',1,   1,   9,     0.810,     0.280,     0.000,     0.000,     0.000,     0.000,   1
  9043,'1 ',1,   1,   9,     1.600,     0.520,     0.000,     0.000,     0.000,     0.000,   1
  9052,'1 ',1,   1,   9,    30.000,    23.000,     0.000,     0.000,     0.000,     0.000,   1
  9071,'1 ',1,   1,   9,     1.020,     0.350,     0.000,     0.000,     0.000,     0.000,   1
  9072,'1 ',1,   1,   9,     1.020,     0.350,     0.000,     0.000,     0.000,     0.000,   1
  9121,'1 ',1,   1,   9,     3.800,     1.250,     0.000,     0.000,     0.000,     0.000,   1
  9533,'1 ',1,   1,   9,     1.190,     0.410,     0.000,     0.000,     0.000,     0.000,   1
 0 /End of Load data, Begin Generator data
 10000,'1 ',    -5.000,   -25.166,    10.000,   -27.683,1.01530,     0,    30.790,   0.00140,   0.12000,   0.00000,   0.00000,1.00000,1,  100.0,  9999.000, -9999.000,   1,1.0000
 10001,'1 ',    -5.000,     7.554,    20.000,   -20.000,1.02050,     0,    25.000,   0.00140,   0.12000,   0.00000,   0.00000,1.00000,1,  100.0,  9999.000, -9999.000,   1,1.0000
 10002,'1 ',   -10.000,   -46.790,    20.000,   -51.469,1.00100,     0,    57.416,   0.00140,   0.12000,   0.00000,   0.00000,1.00000,1,  100.0,  9999.000, -9999.000,   1,1.0000
 10003,'1 ',     0.000,     7.528,    25.000,   -25.000,0.95830,     0,    25.000,   0.00140,   0.12000,   0.00000,   0.00000,1.00000,1,  100.0,  9999.000, -9999.000,   1,1.0000
 10004,'1 ',     0.000,    -9.425,    35.000,   -10.368,0.96320,     0,    25.000,   0.00140,   0.12000,   0.00000,   0.00000,1.00000,1,  100.0,  9999.000, -9999.000,   1,1.0000
 10005,'1 ',   356.864,   124.764,   240.000,  -240.000,1.02500,     0,   835.000,   0.00190,   0.33900,   0.00000,   0.00000,1.00000,1,  100.0,  9999.000, -9999.000,   1,1.0000
 10006,'1 ',   147.504,    35.357,    96.000,   -11.000,1.05200,     0,   270.000,   0.00160,   0.18500,   0.00000,   0.00000,1.00000,1,  100.0,  9999.000, -9999.000,   1,1.0000
 10007,'1 ',   275.975,    25.751,   153.000,  -153.000,1.05200,     0,   410.000,   0.00190,   0.22840,   0.00000,   0.00000,1.00000,1,  100.0,  9999.000, -9999.000,   1,1.0000
 10008,'1 ',    64.711,   -19.773,    56.000,   -30.000,1.00000,     0,   125.000,   0.00400,   0.13400,   0.00000,   0.00000,1.00000,1,  100.0,  9999.000, -9999.000,   1,1.0000
 10009,'1 ',   111.342,     0.009,    77.000,   -24.000,0.99000,     0,   270.000,   0.00160,   0.18500,   0.00000,   0.00000,1.00000,1,  100.0,  9999.000, -9999.000,   1,1.0000
 10010,'1 ',  1836.661,  1000.830,  2200.000,  -500.000,1.04350,     0,  2911.000,   0.00100,   0.19300,   0.00000,   0.00000,1.00000,1,  100.0,  9999.000, -9999.000,   1,1.0000
 10011,'1 ',   228.393,   130.146,   143.161,   -60.000,1.02330,     0,   410.000,   0.00190,   0.22840,   0.00000,   0.00000,1.00000,1,  100.0,  9999.000, -9999.000,   1,1.0000
 10012,'1 ',     0.000,   295.909,   325.500,   -25.000,1.01030,     0,   355.091,   0.00140,   0.12000,   0.00000,   0.00000,1.00000,1,  100.0,  9999.000, -9999.000,   1,1.0000
 10013,'1 ',  -925.030,   370.648,   407.712,  -125.000,1.05500,     0,  1195.829,   0.00100,   0.19300,   0.00000,   0.00000,1.00000,1,  100.0,  9999.000, -9999.000,   1,1.0000
 10014,'1 ',   267.410,    69.889,    75.000,   -50.000,1.05100,     0,   410.000,   0.00190,   0.22840,   0.00000,   0.00000,1.00000,1,  100.0,  9999.000, -9999.000,   1,1.0000
 10015,'1 ',   662.340,   122.720,   300.000,  -100.000,1.04350,     0,   911.000,   0.00100,   0.19300,   0.00000,   0.00000,1.00000,1,  100.0,  9999.000, -9999.000,   1,1.0000
 10016,'1 ',    79.938,    35.839,    39.423,   -15.000,1.05280,     0,   125.000,   0.00400,   0.13400,   0.00000,   0.00000,1.00000,1,  100.0,  9999.000, -9999.000,   1,1.0000
 10017,'1 ',   206.505,   -47.881,   100.000,   -50.000,1.05280,     0,   410.000,   0.00190,   0.22840,   0.00000,   0.00000,1.00000,1,  100.0,  9999.000, -9999.000,   1,1.0000
 10018,'1 ',    98.019,    51.769,    56.946,   -25.000,1.07350,     0,   270.000,   0.00160,   0.18500,   0.00000,   0.00000,1.00000,1,  100.0,  9999.000, -9999.000,   1,1.0000
 10019,'1 ',   354.009,   -60.941,   175.000,   -67.035,1.05350,     0,   835.000,   0.00190,   0.33900,   0.00000,   0.00000,1.00000,1,  100.0,  9999.000, -9999.000,   1,1.0000
 10020,'1 ',   205.554,   -23.255,    90.000,   -50.000,1.04350,     0,   410.000,   0.00190,   0.22840,   0.00000,   0.00000,1.00000,1,  100.0,  9999.000, -9999.000,   1,1.0000
 10021,'1 ',     0.000,    11.983,    15.000,   -10.000,0.96300,     0,    25.000,   0.00140,   0.12000,   0.00000,   0.00000,1.00000,1,  100.0,  9999.000, -9999.000,   1,1.0000
 10022,'1 ',   195.086,   105.494,   116.043,   -40.000,0.92900,     0,   410.000,   0.00190,   0.22840,   0.00000,   0.00000,1.00000,1,  100.0,  9999.000, -9999.000,   1,1.0000
 10023,'1 ',     0.000,   184.907,   203.398,   -50.000,0.98290,     0,   221.888,   0.00140,   0.12000,   0.00000,   0.00000,1.00000,1,  100.0,  9999.000, -9999.000,   1,1.0000
 10024,'1 ',   216.973,    42.114,    90.000,   -45.000,1.05220,     0,   410.000,   0.00190,   0.22840,   0.00000,   0.00000,1.00000,1,  100.0,  9999.000, -9999.000,   1,1.0000
 10025,'1 ',    79.938,    34.461,    35.000,   -15.000,1.00770,     0,   270.000,   0.00160,   0.18500,   0.00000,   0.00000,1.00000,1,  100.0,  9999.000, -9999.000,   1,1.0000
 10026,'1 ',   190.328,    32.813,    80.000,   -50.000,1.05220,     0,   410.000,   0.00190,   0.22840,   0.00000,   0.00000,1.00000,1,  100.0,  9999.000, -9999.000,   1,1.0000
 10027,'1 ',  1141.965,   288.791,   400.000,  -100.000,1.06500,     0,  1911.000,   0.00100,   0.19300,   0.00000,   0.00000,1.00000,1,  100.0,  9999.000, -9999.000,   1,1.0000
 10028,'1 ',  1141.965,   360.313,   400.000,  -100.000,1.06500,     0,  1911.000,   0.00100,   0.19300,   0.00000,   0.00000,1.00000,1,  100.0,  9999.000, -9999.000,   1,1.0000
 10029,'1 ',   452.028,   -26.040,   300.000,  -300.000,1.05510,     0,   835.000,   0.00190,   0.33900,   0.00000,   0.00000,1.00000,1,  100.0,  9999.000, -9999.000,   1,1.0000
 10030,'1 ',  1877.581,   608.708,  1000.000, -1000.000,1.04350,     0,  2911.000,   0.00100,   0.19300,   0.00000,   0.00000,1.00000,1,  100.0,  9999.000, -9999.000,   1,1.0000
 10031,'1 ',   403.494,   104.817,   260.000,  -260.000,1.01500,     0,   835.000,   0.00190,   0.33900,   0.00000,   0.00000,1.00000,1,  100.0,  9999.000, -9999.000,   1,1.0000
 10032,'1 ',   258.845,    44.035,   150.000,  -150.000,1.01000,     0,   512.000,   0.00400,   0.20000,   0.00000,   0.00000,1.00000,1,  100.0,  9999.000, -9999.000,   1,1.0000
 10033,'1 ',    95.164,    35.080,    60.000,   -60.000,1.00800,     0,   270.000,   0.00160,   0.18500,   0.00000,   0.00000,1.00000,1,  100.0,  9999.000, -9999.000,   1,1.0000
 10034,'1 ',   428.237,   151.678,   320.000,  -320.000,1.00000,     0,   835.000,   0.00190,   0.33900,   0.00000,   0.00000,1.00000,1,  100.0,  9999.000, -9999.000,   1,1.0000
 10035,'1 ',   237.909,   145.875,   300.000,  -300.000,1.05000,     0,   410.000,   0.00190,   0.22840,   0.00000,   0.00000,1.00000,1,  100.0,  9999.000, -9999.000,   1,1.0000
 10036,'1 ',   288.346,   257.059,   300.000,  -300.000,1.00000,     0,   512.000,   0.00400,   0.20000,   0.00000,   0.00000,1.00000,1,  100.0,  9999.000, -9999.000,   1,1.0000
 10037,'1 ',   328.315,    40.705,   250.000,  -250.000,1.04000,     0,   835.000,   0.00190,   0.33900,   0.00000,   0.00000,1.00000,1,  100.0,  9999.000, -9999.000,   1,1.0000
 10038,'1 ',   285.491,   135.253,   500.000,  -500.000,1.00000,     0,   512.000,   0.00400,   0.20000,   0.00000,   0.00000,1.00000,1,  100.0,  9999.000, -9999.000,   1,1.0000
 10039,'1 ',   570.983,   298.503,   300.000,  -300.000,1.01650,     0,   911.000,   0.00100,   0.19300,   0.00000,   0.00000,1.00000,1,  100.0,  9999.000, -9999.000,   1,1.0000
 10040,'1 ',   237.909,   168.557,   200.000,  -200.000,1.01000,     0,   410.000,   0.00190,   0.22840,   0.00000,   0.00000,1.00000,1,  100.0,  9999.000, -9999.000,   1,1.0000
 10041,'1 ',   523.401,    67.002,   400.000,  -400.000,1.00000,     0,   911.000,   0.00100,   0.19300,   0.00000,   0.00000,1.00000,1,  100.0,  9999.000, -9999.000,   1,1.0000
 10042,'1 ',   546.982,   -30.363,   600.000,  -600.000,1.05000,     0,   911.000,   0.00100,   0.19300,   0.00000,   0.00000,1.00000,1,  100.0,  9999.000, -9999.000,   1,1.0000
 10043,'1 ',   161.778,    53.596,   100.000,    40.000,0.99300,     0,   410.000,   0.00190,   0.22840,   0.00000,   0.00000,1.00000,1,  100.0,  9999.000, -9999.000,   1,1.0000
 10044,'1 ',    79.938,    52.827,    80.000,    40.000,1.01000,     0,   270.000,   0.00160,   0.18500,   0.00000,   0.00000,1.00000,1,  100.0,  9999.000, -9999.000,   1,1.0000
 10045,'1 ',   444.415,   120.724,   210.000,  -210.000,1.05070,     0,   835.000,   0.00190,   0.33900,   0.00000,   0.00000,1.00000,1,  100.0,  9999.000, -9999.000,   1,1.0000
 10046,'1 ',   592.870,    91.177,   280.000,  -280.000,1.05070,     0,   911.000,   0.00100,   0.19300,   0.00000,   0.00000,1.00000,1,  100.0,  9999.000, -9999.000,   1,1.0000
 10047,'1 ',  1151.482,   406.668,   420.000,  -420.000,1.03230,     0,  1511.000,   0.00100,   0.19300,   0.00000,   0.00000,1.00000,1,  100.0,  9999.000, -9999.000,   1,1.0000
 10048,'1 ',   222.683,    41.375,   100.000,  -100.000,1.01450,     0,   410.000,   0.00190,   0.22840,   0.00000,   0.00000,1.00000,1,  100.0,  9999.000, -9999.000,   1,1.0000
 10049,'1 ',   354.009,   193.070,   224.000,  -224.000,1.05070,     0,   835.000,   0.00190,   0.33900,   0.00000,   0.00000,1.00000,1,  100.0,  9999.000, -9999.000,   1,1.0000
 10050,'1 ',   314.040,   268.970,   350.000,     0.000,1.05070,     0,   835.000,   0.00190,   0.33900,   0.00000,   0.00000,1.00000,1,  100.0,  9999.000, -9999.000,   1,1.0000
 10051,'1 ',   176.053,    -1.206,   120.000,    -1.326,1.05070,     0,   410.000,   0.00190,   0.22840,   0.00000,   0.00000,1.00000,1,  100.0,  9999.000, -9999.000,   1,1.0000
 10052,'1 ',   390.171,    98.371,   224.000,  -224.000,1.02900,     0,   835.000,   0.00190,   0.33900,   0.00000,   0.00000,1.00000,1,  100.0,  9999.000, -9999.000,   1,1.0000
 10053,'1 ',   475.819,   149.156,   200.000,  -200.000,1.05000,     0,   835.000,   0.00190,   0.33900,   0.00000,   0.00000,1.00000,1,  100.0,  9999.000, -9999.000,   1,1.0000
 10054,'1 ',    35.211,    41.049,    42.000,     0.000,1.01450,     0,   125.000,   0.00400,   0.13400,   0.00000,   0.00000,1.00000,1,  100.0,  9999.000, -9999.000,   1,1.0000
 10055,'1 ',   600.793,    41.024,    45.126,     0.000,1.05070,     0,   835.000,   0.00190,   0.33900,   0.00000,   0.00000,1.00000,1,  100.0,  9999.000, -9999.000,   1,1.0000
 10056,'1 ',    42.824,    22.309,    25.000,     0.000,0.99670,     0,   125.000,   0.00400,   0.13400,   0.00000,   0.00000,1.00000,1,  100.0,  9999.000, -9999.000,   1,1.0000
 10057,'1 ',   157.020,    77.540,    90.000,   -90.000,1.02120,     0,   410.000,   0.00190,   0.22840,   0.00000,   0.00000,1.00000,1,  100.0,  9999.000, -9999.000,   1,1.0000
 10058,'1 ',   380.655,    89.353,   150.000,  -150.000,1.01450,     0,   835.000,   0.00190,   0.33900,   0.00000,   0.00000,1.00000,1,  100.0,  9999.000, -9999.000,   1,1.0000
 10059,'1 ',   380.655,   134.733,   150.000,     0.000,1.00170,     0,   835.000,   0.00190,   0.33900,   0.00000,   0.00000,1.00000,1,  100.0,  9999.000, -9999.000,   1,1.0000
 10060,'1 ',   110.390,    77.362,    87.000,     0.000,0.98930,     0,   270.000,   0.00160,   0.18500,   0.00000,   0.00000,1.00000,1,  100.0,  9999.000, -9999.000,   1,1.0000
 10061,'1 ',  1229.516,   336.634,   600.000,  -100.000,1.05070,     0,  1511.000,   0.00100,   0.19300,   0.00000,   0.00000,1.00000,1,  100.0,  9999.000, -9999.000,   1,1.0000
 10062,'1 ',   666.146,   285.386,   325.000,  -125.000,1.05070,     0,   911.000,   0.00100,   0.19300,   0.00000,   0.00000,1.00000,1,  100.0,  9999.000, -9999.000,   1,1.0000
 10063,'1 ',   526.256,   123.080,   300.000,  -200.000,1.01450,     0,   911.000,   0.00100,   0.19300,   0.00000,   0.00000,1.00000,1,  100.0,  9999.000, -9999.000,   1,1.0000
 10064,'1 ',    -4.200,     2.135,     2.348,    -2.000,0.99450,     0,    25.000,   0.00140,   0.12000,   0.00000,   0.00000,1.00000,1,  100.0,  9999.000, -9999.000,   1,1.0000
 10065,'1 ',   -35.810,    15.508,    17.350,   -17.350,1.00000,     0,   125.000,   0.00400,   0.13400,   0.00000,   0.00000,1.00000,1,  100.0,  9999.000, -9999.000,   1,1.0000
 10066,'1 ',   -26.480,    11.375,    12.830,   -12.800,1.00000,     0,   125.000,   0.00400,   0.13400,   0.00000,   0.00000,1.00000,1,  100.0,  9999.000, -9999.000,   1,1.0000
 10067,'1 ',    47.582,    19.778,    38.000,   -38.000,1.00000,     0,   125.000,   0.00400,   0.13400,   0.00000,   0.00000,1.00000,1,  100.0,  9999.000, -9999.000,   1,1.0000
 10068,'1 ',     7.613,     3.660,     6.000,    -6.000,1.00000,     0,    25.000,   0.00140,   0.12000,   0.00000,   0.00000,1.00000,1,  100.0,  9999.000, -9999.000,   1,1.0000
 0 /End of Generator data, Begin Branch data
     1,      5,'1 ',   0.00100,   0.00600,   0.00000,    0.00,    0.00,    0.00,  0.00000,  0.00000,  0.00000,  0.00000,1,   0.00,   1,1.0000
     2,      6,'1 ',   0.00100,   0.00900,   0.00000,    0.00,    0.00,    0.00,  0.00000,  0.00000,  0.00000,  0.00000,1,   0.00,   1,1.0000
     2,      8,'1 ',   0.00600,   0.02700,   0.05400,    0.00,    0.00,    0.00,  0.00000,  0.00000,  0.00000,  0.00000,1,   0.00,   1,1.0000
     3,      7,'1 ',   0.00000,   0.00300,   0.00000,    0.00,    0.00,    0.00,  0.00000,  0.00000,  0.00000,  0.00000,1,   0.00,   1,1.0000
     3,     19,'1 ',   0.00800,   0.06900,   0.13900,    0.00,    0.00,    0.00,  0.00000,  0.00000,  0.00000,  0.00000,1,   0.00,   1,1.0000
     3,    150,'1 ',   0.00100,   0.00700,   0.00000,    0.00,    0.00,    0.00,  0.00000,  0.00000,  0.00000,  0.00000,1,   0.00,   1,1.0000
     4,     16,'1 ',   0.00200,   0.01900,   1.12700,    0.00,    0.00,    0.00,  0.00000,  0.00000,  0.00000,  0.00000,1,   0.00,   1,1.0000
     5,      9,'1 ',   0.00600,   0.02900,   0.01800,    0.00,    0.00,    0.00,  0.00000,  0.00000,  0.00000,  0.00000,1,   0.00,   1,1.0000
     7,     12,'1 ',   0.00100,   0.00900,   0.07000,    0.00,    0.00,    0.00,  0.00000,  0.00000,  0.00000,  0.00000,1,   0.00,   1,1.0000
     7,    131,'1 ',   0.00100,   0.00700,   0.01400,    0.00,    0.00,    0.00,  0.00000,  0.00000,  0.00000,  0.00000,1,   0.00,   1,1.0000
     8,     11,'1 ',   0.01300,   0.05950,   0.03300,    0.00,    0.00,    0.00,  0.00000,  0.00000,  0.00000,  0.00000,1,   0.00,   1,1.0000
     8,     14,'1 ',   0.01300,   0.04200,   0.08100,    0.00,    0.00,    0.00,  0.00000,  0.00000,  0.00000,  0.00000,1,   0.00,   1,1.0000
     9,     11,'1 ',   0.00600,   0.02700,   0.01300,    0.00,    0.00,    0.00,  0.00000,  0.00000,  0.00000,  0.00000,1,   0.00,   1,1.0000
    11,     13,'1 ',   0.00800,   0.03400,   0.01800,    0.00,    0.00,    0.00,  0.00000,  0.00000,  0.00000,  0.00000,1,   0.00,   1,1.0000
    12,     21,'1 ',   0.00200,   0.01500,   0.11800,    0.00,    0.00,    0.00,  0.00000,  0.00000,  0.00000,  0.00000,1,   0.00,   1,1.0000
    13,     20,'1 ',   0.00600,   0.03400,   0.01600,    0.00,    0.00,    0.00,  0.00000,  0.00000,  0.00000,  0.00000,1,   0.00,   1,1.0000
    14,     15,'1 ',   0.01400,   0.04200,   0.09700,    0.00,    0.00,    0.00,  0.00000,  0.00000,  0.00000,  0.00000,1,   0.00,   1,1.0000
    15,     37,'1 ',   0.06500,   0.24800,   0.12100,    0.00,    0.00,    0.00,  0.00000,  0.00000,  0.00000,  0.00000,1,   0.00,   1,1.0000
    15,     89,'1 ',   0.09900,   0.24800,   0.03500,    0.00,    0.00,    0.00,  0.00000,  0.00000,  0.00000,  0.00000,1,   0.00,   1,1.0000
    15,     90,'1 ',   0.09600,   0.36300,   0.04800,    0.00,    0.00,    0.00,  0.00000,  0.00000,  0.00000,  0.00000,1,   0.00,   1,1.0000
    16,     42,'1 ',   0.00200,   0.02200,   1.28000,    0.00,    0.00,    0.00,  0.00000,  0.00000,  0.00000,  0.00000,1,   0.00,   1,1.0000
    19,     21,'1 ',   0.00200,   0.01800,   0.03600,    0.00,    0.00,    0.00,  0.00000,  0.00000,  0.00000,  0.00000,1,   0.00,   1,1.0000
    19,     87,'1 ',   0.01300,   0.08000,   0.15100,    0.00,    0.00,    0.00,  0.00000,  0.00000,  0.00000,  0.00000,1,   0.00,   1,1.0000
    20,     22,'1 ',   0.01600,   0.03300,   0.01500,    0.00,    0.00,    0.00,  0.00000,  0.00000,  0.00000,  0.00000,1,   0.00,   1,1.0000
    20,     27,'1 ',   0.06900,   0.18600,   0.09800,    0.00,    0.00,    0.00,  0.00000,  0.00000,  0.00000,  0.00000,1,   0.00,   1,1.0000
    21,     24,'1 ',   0.00400,   0.03400,   0.28000,    0.00,    0.00,    0.00,  0.00000,  0.00000,  0.00000,  0.00000,1,   0.00,   1,1.0000
    22,     23,'1 ',   0.05200,   0.11100,   0.05000,    0.00,    0.00,    0.00,  0.00000,  0.00000,  0.00000,  0.00000,1,   0.00,   1,1.0000
    23,     25,'1 ',   0.01900,   0.03900,   0.01800,    0.00,    0.00,    0.00,  0.00000,  0.00000,  0.00000,  0.00000,1,   0.00,   1,1.0000
    24,    319,'1 ',   0.00700,   0.06800,   0.13400,    0.00,    0.00,    0.00,  0.00000,  0.00000,  0.00000,  0.00000,1,   0.00,   1,1.0000
    25,     26,'1 ',   0.03600,   0.07100,   0.03400,    0.00,    0.00,    0.00,  0.00000,  0.00000,  0.00000,  0.00000,1,   0.00,   1,1.0000
    26,     27,'1 ',   0.04500,   0.12000,   0.06500,    0.00,    0.00,    0.00,  0.00000,  0.00000,  0.00000,  0.00000,1,   0.00,   1,1.0000
    26,    320,'1 ',   0.04300,   0.13000,   0.01400,    0.00,    0.00,    0.00,  0.00000,  0.00000,  0.00000,  0.00000,1,   0.00,   1,1.0000
    33,     34,'1 ',   0.00000,   0.06300,   0.00000,    0.00,    0.00,    0.00,  0.00000,  0.00000,  0.00000,  0.00000,1,   0.00,   1,1.0000
    33,     38,'1 ',   0.00250,   0.01200,   0.01300,    0.00,    0.00,    0.00,  0.00000,  0.00000,  0.00000,  0.00000,1,   0.00,   1,1.0000
    33,     40,'1 ',   0.00600,   0.02900,   0.02000,    0.00,    0.00,    0.00,  0.00000,  0.00000,  0.00000,  0.00000,1,   0.00,   1,1.0000
    33,     41,'1 ',   0.00700,   0.04300,   0.02600,    0.00,    0.00,    0.00,  0.00000,  0.00000,  0.00000,  0.00000,1,   0.00,   1,1.0000
    34,     42,'1 ',   0.00100,   0.00800,   0.04200,    0.00,    0.00,    0.00,  0.00000,  0.00000,  0.00000,  0.00000,1,   0.00,   1,1.0000
    35,     72,'1 ',   0.01200,   0.06000,   0.00800,    0.00,    0.00,    0.00,  0.00000,  0.00000,  0.00000,  0.00000,1,   0.00,   1,1.0000
    35,     76,'1 ',   0.00600,   0.01400,   0.00200,    0.00,    0.00,    0.00,  0.00000,  0.00000,  0.00000,  0.00000,1,   0.00,   1,1.0000
    35,     77,'1 ',   0.01000,   0.02900,   0.00300,    0.00,    0.00,    0.00,  0.00000,  0.00000,  0.00000,  0.00000,1,   0.00,   1,1.0000
    36,     88,'1 ',   0.00400,   0.02700,   0.04300,    0.00,    0.00,    0.00,  0.00000,  0.00000,  0.00000,  0.00000,1,   0.00,   1,1.0000
    37,     38,'1 ',   0.00800,   0.04700,   0.00800,    0.00,    0.00,    0.00,  0.00000,  0.00000,  0.00000,  0.00000,1,   0.00,   1,1.0000
    37,     40,'1 ',   0.02200,   0.06400,   0.00700,    0.00,    0.00,    0.00,  0.00000,  0.00000,  0.00000,  0.00000,1,   0.00,   1,1.0000
    37,     41,'1 ',   0.01000,   0.03600,   0.02000,    0.00,    0.00,    0.00,  0.00000,  0.00000,  0.00000,  0.00000,1,   0.00,   1,1.0000
    37,     49,'1 ',   0.01700,   0.08100,   0.04800,    0.00,    0.00,    0.00,  0.00000,  0.00000,  0.00000,  0.00000,1,   0.00,   1,1.0000
    37,     89,'1 ',   0.10200,   0.25400,   0.03300,    0.00,    0.00,    0.00,  0.00000,  0.00000,  0.00000,  0.00000,1,   0.00,   1,1.0000
    37,     90,'1 ',   0.04700,   0.12700,   0.01600,    0.00,    0.00,    0.00,  0.00000,  0.00000,  0.00000,  0.00000,1,   0.00,   1,1.0000
    38,     41,'1 ',   0.00800,   0.03700,   0.02000,    0.00,    0.00,    0.00,  0.00000,  0.00000,  0.00000,  0.00000,1,   0.00,   1,1.0000
    38,     43,'1 ',   0.03200,   0.08700,   0.04000,    0.00,    0.00,    0.00,  0.00000,  0.00000,  0.00000,  0.00000,1,   0.00,   1,1.0000
    39,     42,'1 ',   0.00060,   0.00640,   0.40400,    0.00,    0.00,    0.00,  0.00000,  0.00000,  0.00000,  0.00000,1,   0.00,   1,1.0000
    40,     48,'1 ',   0.02600,   0.15400,   0.02200,    0.00,    0.00,    0.00,  0.00000,  0.00000,  0.00000,  0.00000,1,   0.00,   1,1.0000
    41,     42,'1 ',   0.00000,   0.02900,   0.00000,    0.00,    0.00,    0.00,  0.00000,  0.00000,  0.00000,  0.00000,1,   0.00,   1,1.0000
    41,     49,'1 ',   0.06500,   0.19100,   0.02000,    0.00,    0.00,    0.00,  0.00000,  0.00000,  0.00000,  0.00000,1,   0.00,   1,1.0000
    41,     51,'1 ',   0.03100,   0.08900,   0.03600,    0.00,    0.00,    0.00,  0.00000,  0.00000,  0.00000,  0.00000,1,   0.00,   1,1.0000
    42,     46,'1 ',   0.00200,   0.01400,   0.80600,    0.00,    0.00,    0.00,  0.00000,  0.00000,  0.00000,  0.00000,1,   0.00,   1,1.0000
    43,     44,'1 ',   0.02600,   0.07200,   0.03500,    0.00,    0.00,    0.00,  0.00000,  0.00000,  0.00000,  0.00000,1,   0.00,   1,1.0000
    43,     48,'1 ',   0.09500,   0.26200,   0.03200,    0.00,    0.00,    0.00,  0.00000,  0.00000,  0.00000,  0.00000,1,   0.00,   1,1.0000
    43,     53,'1 ',   0.01300,   0.03900,   0.01600,    0.00,    0.00,    0.00,  0.00000,  0.00000,  0.00000,  0.00000,1,   0.00,   1,1.0000
    44,     47,'1 ',   0.02700,   0.08400,   0.03900,    0.00,    0.00,    0.00,  0.00000,  0.00000,  0.00000,  0.00000,1,   0.00,   1,1.0000
    44,     54,'1 ',   0.02800,   0.08400,   0.03700,    0.00,    0.00,    0.00,  0.00000,  0.00000,  0.00000,  0.00000,1,   0.00,   1,1.0000
    45,     60,'1 ',   0.00700,   0.04100,   0.31200,    0.00,    0.00,    0.00,  0.00000,  0.00000,  0.00000,  0.00000,1,   0.00,   1,1.0000
    45,     74,'1 ',   0.00900,   0.05400,   0.41100,    0.00,    0.00,    0.00,  0.00000,  0.00000,  0.00000,  0.00000,1,   0.00,   1,1.0000
    46,     81,'1 ',   0.00500,   0.04200,   0.69000,    0.00,    0.00,    0.00,  0.00000,  0.00000,  0.00000,  0.00000,1,   0.00,   1,1.0000
    47,     73,'1 ',   0.05200,   0.14500,   0.07300,    0.00,    0.00,    0.00,  0.00000,  0.00000,  0.00000,  0.00000,1,   0.00,   1,1.0000
    47,    113,'1 ',   0.04300,   0.11800,   0.01300,    0.00,    0.00,    0.00,  0.00000,  0.00000,  0.00000,  0.00000,1,   0.00,   1,1.0000
    48,    107,'1 ',   0.02500,   0.06200,   0.00700,    0.00,    0.00,    0.00,  0.00000,  0.00000,  0.00000,  0.00000,1,   0.00,   1,1.0000
    49,     51,'1 ',   0.03100,   0.09400,   0.04300,    0.00,    0.00,    0.00,  0.00000,  0.00000,  0.00000,  0.00000,1,   0.00,   1,1.0000
    51,     52,'1 ',   0.03700,   0.10900,   0.04900,    0.00,    0.00,    0.00,  0.00000,  0.00000,  0.00000,  0.00000,1,   0.00,   1,1.0000
    52,     55,'1 ',   0.02700,   0.08000,   0.03600,    0.00,    0.00,    0.00,  0.00000,  0.00000,  0.00000,  0.00000,1,   0.00,   1,1.0000
    53,     54,'1 ',   0.02500,   0.07300,   0.03500,    0.00,    0.00,    0.00,  0.00000,  0.00000,  0.00000,  0.00000,1,   0.00,   1,1.0000
    54,     55,'1 ',   0.03500,   0.10300,   0.04700,    0.00,    0.00,    0.00,  0.00000,  0.00000,  0.00000,  0.00000,1,   0.00,   1,1.0000
    55,     57,'1 ',   0.06500,   0.16900,   0.08200,    0.00,    0.00,    0.00,  0.00000,  0.00000,  0.00000,  0.00000,1,   0.00,   1,1.0000
    57,     58,'1 ',   0.04600,   0.08000,   0.03600,    0.00,    0.00,    0.00,  0.00000,  0.00000,  0.00000,  0.00000,1,   0.00,   1,1.0000
    57,     63,'1 ',   0.15900,   0.53700,   0.07100,    0.00,    0.00,    0.00,  0.00000,  0.00000,  0.00000,  0.00000,1,   0.00,   1,1.0000
    58,     59,'1 ',   0.00900,   0.02600,   0.00500,    0.00,    0.00,    0.00,  0.00000,  0.00000,  0.00000,  0.00000,1,   0.00,   1,1.0000
    59,     61,'1 ',   0.00200,   0.01300,   0.01500,    0.00,    0.00,    0.00,  0.00000,  0.00000,  0.00000,  0.00000,1,   0.00,   1,1.0000
    60,     62,'1 ',   0.00900,   0.06500,   0.48500,    0.00,    0.00,    0.00,  0.00000,  0.00000,  0.00000,  0.00000,1,   0.00,   1,1.0000
    62,     64,'1 ',   0.01600,   0.10500,   0.20300,    0.00,    0.00,    0.00,  0.00000,  0.00000,  0.00000,  0.00000,1,   0.00,   1,1.0000
...